src/data/cigre/CIGRE_test_case.dss
Clear

// added some CapControls and AssetInfosheets to test the CDPSM export

new circuit.IEEE13NodecktAssets
~ baseMVA=1
~ basekv=4.16 pu=1.00 phases=3 bus1=SourceBus
~ Angle=30                     ! advance angle 30 deg so result agree with published angle
!~ MVAsc3=20000 MVASC1=21000    ! stiffen the source to approximate inf source
~ MVAsc3=200000000 MVASC1=210000000    ! stiffen the source to approximate inf source

New Linecode.601 nphases=3  Units=kft
~ Rmatrix=[0.0628152  |0.0282997  0.0647306  |0.0277341  0.0286852  0.0635484  ]
~ Xmatrix=[0.168868  |0.078849  0.163722  |0.0641553  0.0723125  0.166888  ]
~ Cmatrix=[2.92938  |-0.888014  3.13949  |-0.375081  -0.701333  2.86474  ]
!~ Cmatrix=[0  |0  0  |0  0  0  ]


New Line.line1    Phases=3 Bus1=SourceBus   Bus2=primary  linecode=601 Length=2000 units=ft normamps=1000 emergamps=1000

New Transformer.Reg Bank=Reg Buses=[primary secondary] taps=[1.0 1.0]
~ phases=3 xhl=0.1 kvas=[1666 1666] kvs=[4.16 4.16] %LoadLoss=0

New Line.line2    Phases=3 Bus1=secondary   Bus2=loadbus  linecode=601 Length=2000 units=ft normamps=1000 emergamps=1000

!New Load.671 Bus1=loadbus.1.2.3       Phases=3 Conn=Delta Model=1 kV=4.16   kW=1155 kvar=660 vminpu=0.6 vmaxpu=1.4
New Load.671a Bus1=loadbus.1       Phases=1 Conn=Wye Model=1 kV=2.1   kW=500 kvar=300 vminpu=0.6 vmaxpu=1.4
New Load.671b Bus1=loadbus.2       Phases=1 Conn=Wye Model=1 kV=2.1   kW=600 kvar=300 vminpu=0.6 vmaxpu=1.4
New Load.671c Bus1=loadbus.3       Phases=1 Conn=Wye Model=1 kV=2.1   kW=700 kvar=300 vminpu=0.6 vmaxpu=1.4



Set Voltagebases=[115, 4.16, .48]
calcv
Solve

